kpg193_v2_0_2033/network/m/KPG193_ver2_0_2033.m
function mpc = KPG193_ver2_0_2033
% Generated from KPG193_ver1_6 ACOPF hourly result.
% Bus voltage angle Va is in degrees, matching MATPOWER case format.
mpc.version = '2';

%-----  Power Flow Data  -----%%
% system MVA base
mpc.baseMVA = 100;

% bus data
%	bus_i	type	Pd	Qd	Gs	Bs	area	Vm	Va	baseKV	zone	Vmax	Vmin
mpc.bus = [
	1	1	70.5294373512	7.05294373512	0	0	1	1.01330320058	-7.88960935442	154	1	1.1	0.9	;
	2	1	85.2439122099	8.52439122099	0	0	1	1.01582460674	-9.47740849161	345	1	1.05	0.95	;
	3	1	390.961712763	39.0961712763	0	0	1	1.01575645925	-9.40131203023	345	1	1.05	0.95	;
	4	1	90.678351773	9.0678351773	0	0	1	1.0169786474	-9.84829672523	345	1	1.05	0.95	;
	5	1	84.2511667296	10.239559106	0	0	1	1.02157108581	-1.38311836894	154	1	1.1	0.9	;
	6	1	87.1223751917	8.71223751917	0	0	1	1.01720604446	-10.9222832259	154	1	1.1	0.9	;
	7	1	587.847352912	58.7858780223	0	0	1	1.01801985142	-9.97229817584	345	1	1.05	0.95	;
	8	1	1341.88577026	134.188577026	0	0	1	1.01759836085	-10.6739041159	345	1	1.05	0.95	;
	9	1	339.724251176	33.9724251176	0	0	1	1.01970220544	-10.3963429082	154	1	1.1	0.9	;
	10	2	746.360774908	74.6360774908	0	0	1	1.01924443712	-10.5644959153	154	1	1.1	0.9	;
	11	1	618.196746903	61.8196746903	0	0	1	1.01759053192	-10.930161566	345	1	1.05	0.95	;
	12	1	339.211970696	33.9211970696	0	0	1	1.01960667493	-10.4139549129	154	1	1.1	0.9	;
	13	1	365.611041005	36.5611041005	0	0	1	1.01984901018	-10.3956447166	154	1	1.1	0.9	;
	14	1	392.090809915	39.2090809915	0	0	1	1.01982133101	-10.4328317567	345	1	1.05	0.95	;
	15	1	115.988104861	11.5988104861	0	0	1	1.02042476842	-10.3135128156	154	1	1.1	0.9	;
	16	1	499.681325879	49.968132588	0	0	1	1.02074862707	-10.2787178575	345	1	1.05	0.95	;
	17	1	538.810429472	53.8810429472	0	0	1	1.02044468327	-10.3624322604	345	1	1.05	0.95	;
	18	1	562.540448638	56.2540448638	0	0	1	1.02027743871	-10.3957398191	345	1	1.05	0.95	;
	19	2	529.41800434	52.9594619027	0	0	1	1.01985451276	-10.4363826707	345	1	1.05	0.95	;
	20	2	270.765273939	27.3492716478	0	0	1	1.01925095125	-9.81480494035	154	1	1.1	0.9	;
	21	2	813.720490708	82.5522153533	0	0	1	1.01884044534	-10.7051622412	345	1	1.05	0.95	;
	22	1	666.628812393	66.6628812393	0	0	1	1.02063109645	-10.2688486074	345	1	1.05	0.95	;
	23	1	390.105457348	39.0105457348	0	0	1	1.01932377593	-10.4787275332	345	1	1.05	0.95	;
	24	1	638.220400093	63.8220400093	0	0	1	1.01939967598	-10.5418853077	154	1	1.1	0.9	;
	25	1	516.111500034	51.6111500034	0	0	1	1.01907214751	-10.6483831487	154	1	1.1	0.9	;
	26	1	609.160173893	60.9160173893	0	0	1	1.019896055	-10.502323906	345	1	1.05	0.95	;
	27	2	-232.863115786	3.46988036135	0	0	1	1.02115208911	-10.1976880933	345	1	1.05	0.95	;
	28	1	138.103544707	13.8103544707	0	0	1	1.01369522347	-5.92713568819	765	1	1.05	0.95	;
	29	1	671.623677458	67.1626204131	0	0	1	1.01946999369	-10.3199826211	345	1	1.05	0.95	;
	30	1	521.840872862	52.1840872862	0	0	1	1.01942081377	-10.3228699467	154	1	1.1	0.9	;
	31	1	424.398523881	42.4406841236	0	0	1	1.01848156221	-10.5456770568	154	1	1.1	0.9	;
	32	1	174.984171231	17.4984171231	0	0	1	1.01917157487	-10.4982749032	345	1	1.05	0.95	;
	33	1	504.598474513	50.4598474513	0	0	1	1.01896136829	-10.5111953586	154	1	1.1	0.9	;
	34	2	1128.47597513	112.848177768	0	0	1	1.0204283791	-10.4242799977	345	1	1.05	0.95	;
	35	1	687.480708031	68.7480708031	0	0	1	1.01736501152	-10.5647387553	154	1	1.1	0.9	;
	36	1	793.087541579	79.3087541579	0	0	1	1.01954288641	-10.2899506402	345	1	1.05	0.95	;
	37	1	972.309793735	97.2309793735	0	0	1	1.01920180073	-10.3961158525	345	1	1.05	0.95	;
	38	1	393.796564228	39.3796564228	0	0	1	1.01773525932	-9.58514500366	345	1	1.05	0.95	;
	39	1	759.744444073	75.9744444073	0	0	1	1.01476735002	-11.2142949025	154	1	1.1	0.9	;
	40	2	1134.19059162	115.164318677	0	0	1	1.01916275787	-9.44497496624	345	1	1.05	0.95	;
	41	1	208.087981826	20.8087981826	0	0	1	1.00869725925	-4.83706365654	154	1	1.1	0.9	;
	42	2	1269.9633521	126.99633521	0	0	1	1.00753403663	-8.0770493072	154	1	1.1	0.9	;
	43	1	661.888338331	66.1917699507	0	0	1	1.01545424586	-10.872908533	154	1	1.1	0.9	;
	44	1	204.206484287	20.4220294567	0	0	1	1.01805911508	-10.2045680669	345	1	1.05	0.95	;
	45	1	373.917303076	37.3917303076	0	0	1	1.01787013431	-9.84767571099	345	1	1.05	0.95	;
	46	2	1176.2903459	117.62903459	0	0	1	1.01829928115	-9.55862370055	345	1	1.05	0.95	;
	47	1	2979.35630226	297.936246394	0	0	1	1.01566544152	-10.7861321756	345	1	1.05	0.95	;
	48	2	207.8237945	20.78237945	0	0	1	1.01870862175	-9.65285060284	154	1	1.1	0.9	;
	49	1	425.192874444	42.5192874444	0	0	1	1.01720211952	-9.80204023536	154	1	1.1	0.9	;
	50	1	505.628880998	50.5628880998	0	0	1	1.01928507495	-8.96029706788	765	1	1.05	0.95	;
	51	1	2025.67651015	202.567651015	0	0	1	1.01797412487	-9.66638296286	345	1	1.05	0.95	;
	52	2	466.167645351	46.6167645351	0	0	2	1.01174585753	-6.19963367889	154	1	1.1	0.9	;
	53	2	967.482909104	96.7482909104	0	0	2	1.02737304185	-4.48734637793	765	1	1.05	0.95	;
	54	1	415.687368931	41.5687368931	0	0	2	1.01865977418	-8.37028624429	345	1	1.05	0.95	;
	55	1	1209.98997817	120.999358842	0	0	2	1.01992636383	-7.70370273672	345	1	1.05	0.95	;
	56	1	168.111125399	16.8111125399	0	0	2	1.01336274022	-7.90335851627	154	1	1.1	0.9	;
	57	1	1905.20137902	190.520412911	0	0	2	1.01910342184	-7.98861363089	345	1	1.05	0.95	;
	58	1	1426.17553767	142.618323897	0	0	2	1.02716525983	-4.24651674529	345	1	1.05	0.95	;
	59	2	129.460906895	12.950181796	0	0	2	1.0287538269	-3.2539810649	345	1	1.05	0.95	;
	60	1	188.594373436	18.8594373436	0	0	2	1.02389166899	-6.33865718964	345	1	1.05	0.95	;
	61	1	902.884867754	90.2885388196	0	0	2	1.01929480371	-8.34512525089	154	1	1.1	0.9	;
	62	1	1062.69578841	106.269822269	0	0	2	1.02090835004	-8.18478375384	765	1	1.05	0.95	;
	63	1	147.230913131	14.7230913131	0	0	2	1.02634843794	-5.46034106797	765	1	1.05	0.95	;
	64	1	536.463944979	53.6463944979	0	0	2	1.0194101506	-7.87673578384	345	1	1.05	0.95	;
	65	1	82.124586628	12.7579855169	0	0	3	1.01026306323	5.44159000104	154	1	1.1	0.9	;
	66	1	30.9038478495	3.68544355391	0	0	3	1.01276840742	-2.79975831309	154	1	1.1	0.9	;
	67	1	26.4663004873	2.91996837052	0	0	3	1.00976838896	0.00854262170825	154	1	1.1	0.9	;
	68	1	2.86813952367	4.61015233349	0	0	3	1.01345430253	7.23908424679	345	1	1.05	0.95	;
	69	1	16.244397081	4.79708764089	0	0	3	1.0093458652	2.08686662751	154	1	1.1	0.9	;
	70	1	264.022135308	26.4582163858	0	0	3	1.01221203033	-2.8058272283	154	1	1.1	0.9	;
	71	2	298.388879753	29.8388879753	0	0	3	1.01557705794	9.24619705267	345	1	1.05	0.95	;
	72	1	104.176578029	10.4176578029	0	0	3	1.00976432742	-1.85580532894	154	1	1.1	0.9	;
	73	2	329.344539113	33.831039349	0	0	3	1.0133528625	11.5139821003	345	1	1.05	0.95	;
	74	1	-83.0612892989	9.62104950969	0	0	3	1.01062649096	-1.84743065978	154	1	1.1	0.9	;
	75	2	163.888374307	19.9666707169	0	0	3	1.01559721634	13.4968838063	345	1	1.05	0.95	;
	76	1	35.5267225527	8.88846109335	0	0	3	1.00085871587	6.04933272872	154	1	1.1	0.9	;
	77	1	366.554296039	36.6554296039	0	0	3	1.00875410182	-3.18552719046	154	1	1.1	0.9	;
	78	1	-719.543270253	8.87157739762	0	0	3	1.01704115365	0.757765553205	154	1	1.1	0.9	;
	79	1	161.71422408	16.171422408	0	0	3	0.998219333213	2.92278350973	154	1	1.1	0.9	;
	80	1	-1979.0483655	4.29103985597	0	0	3	1.00085741118	12.0161160408	765	1	1.05	0.95	;
	81	1	234.209489424	23.4218461688	0	0	3	1.002928609	0.766724575654	345	1	1.05	0.95	;
	82	2	92.0368767397	10.1839658939	0	0	3	1.00727325888	16.3147419012	765	1	1.05	0.95	;
	83	1	267.808554264	26.7814890546	0	0	3	0.991878948714	0.435399789729	154	1	1.1	0.9	;
	84	1	376.64301789	39.0663135536	0	0	3	1.00963486051	-5.54318794247	345	1	1.05	0.95	;
	85	1	252.235202197	25.2235202197	0	0	3	0.992651086086	5.09322701809	154	1	1.1	0.9	;
	86	1	247.004141102	24.700626697	0	0	3	0.997874980045	3.99453595911	345	1	1.05	0.95	;
	87	2	21.2578771301	5.65078468942	0	0	3	0.998048703925	3.95347259054	345	1	1.05	0.95	;
	88	1	-1112.54912333	1.58891215495	0	0	3	1.00415660813	13.6265636362	154	1	1.1	0.9	;
	89	1	85.7040518845	8.57103394876	0	0	3	0.996965540797	0.427804488897	154	1	1.1	0.9	;
	90	1	165.028116386	17.1652829792	0	0	3	0.99746809987	2.81684674994	154	1	1.1	0.9	;
	91	1	57.4611987421	5.74611987421	0	0	3	1.01469723701	-6.55813575416	154	1	1.1	0.9	;
	92	1	-162.004371006	2.91631681582	0	0	3	0.99931664427	4.3131262786	345	1	1.05	0.95	;
	93	1	113.689785444	11.3701214348	0	0	3	1.00207979894	-2.96125906912	154	1	1.1	0.9	;
	94	1	-593.08814585	4.20287113195	0	0	3	0.998593962714	10.5157146967	154	1	1.1	0.9	;
	95	1	64.5843115418	6.45843115418	0	0	3	0.997332967928	2.60509572675	345	1	1.05	0.95	;
	96	1	167.09043615	16.709043615	0	0	4	1.02067264657	-7.15324004309	154	1	1.1	0.9	;
	97	1	51.9911546228	5.19911546228	0	0	4	1.02550272914	-5.548923659	345	1	1.05	0.95	;
	98	1	265.269445087	26.8045826707	0	0	4	1.01679867694	-8.3060775083	154	1	1.1	0.9	;
	99	2	860.007937136	86.0007937136	0	0	4	1.01711528017	-8.53665670574	154	1	1.1	0.9	;
	100	2	201.54091886	20.154091886	0	0	4	1.02822041871	-3.56922664917	345	1	1.05	0.95	;
	101	1	314.317249822	31.4317249822	0	0	4	1.02060629872	-7.86839147412	154	1	1.1	0.9	;
	102	1	92.5338881536	9.25338881536	0	0	4	1.0195598795	-6.85813465127	345	1	1.05	0.95	;
	103	1	97.0067010359	9.70067010359	0	0	4	1.0242230976	-5.65448140494	154	1	1.1	0.9	;
	104	1	204.929197223	20.4929197223	0	0	4	1.02272558369	-6.53342059389	345	1	1.05	0.95	;
	105	1	137.378092385	13.7378092385	0	0	4	1.01583239193	-7.03705133631	154	1	1.1	0.9	;
	106	2	162.58444802	16.258444802	0	0	4	1.02619888572	-4.97876443527	154	1	1.1	0.9	;
	107	1	-2.65922877267	3.08706685376	0	0	4	1.01605370325	-6.16679994258	345	1	1.05	0.95	;
	108	1	843.860473786	84.3860473786	0	0	4	1.02523979431	-5.85877207512	345	1	1.05	0.95	;
	109	1	441.902722768	44.1902722768	0	0	4	1.02356830864	-6.19917661097	345	1	1.05	0.95	;
	110	1	258.605988446	25.8605988446	0	0	4	1.0176454977	-7.45298939904	154	1	1.1	0.9	;
	111	1	163.765319814	16.3765319814	0	0	4	1.02309204818	-5.6070543622	345	1	1.05	0.95	;
	112	1	30.276019308	3.0276019308	0	0	4	1.01764754684	-6.96787658575	154	1	1.1	0.9	;
	113	1	643.562070429	64.3562070429	0	0	4	1.01644973487	-7.61996880807	154	1	1.1	0.9	;
	114	1	70.868052789	7.11873245239	0	0	4	1.022615842	-6.10101320001	154	1	1.1	0.9	;
	115	1	31.0420107195	3.10420107195	0	0	4	1.01976987599	-6.39808668973	154	1	1.1	0.9	;
	116	1	43.8210856729	4.38210856729	0	0	4	1.01863424616	-6.71507397816	154	1	1.1	0.9	;
	117	1	249.98036586	26.4597878449	0	0	4	1.02357754225	-6.15492644452	154	1	1.1	0.9	;
	118	1	96.0973804088	9.60973804088	0	0	4	1.02423508637	-3.783586988	154	1	1.1	0.9	;
	119	1	96.8106861871	9.6810686187	0	0	4	1.0200962044	-5.70815144632	345	1	1.05	0.95	;
	120	1	39.6946770334	3.96946770334	0	0	4	1.02334958571	-5.54614815838	154	1	1.1	0.9	;
	121	1	92.3766663287	9.23766663287	0	0	4	1.02291329408	-6.41477045258	154	1	1.1	0.9	;
	122	1	76.4970342665	7.64970342664	0	0	4	1.02087120629	-6.2373475449	154	1	1.1	0.9	;
	123	1	62.217329756	6.2217329756	0	0	4	1.0205558795	-6.21776290051	154	1	1.1	0.9	;
	124	2	120.911706346	12.0911706346	0	0	4	1.02555799299	-0.634764095984	345	1	1.05	0.95	;
	125	1	25.7513558673	2.57513558673	0	0	4	1.02014440276	-6.39854658768	154	1	1.1	0.9	;
	126	1	429.002713789	42.9002713789	0	0	4	1.02069035812	-5.81631797345	345	1	1.05	0.95	;
	127	1	338.05167211	33.805167211	0	0	4	1.0182716829	-6.8591378953	154	1	1.1	0.9	;
	128	1	510.76276952	51.076276952	0	0	4	1.01603777605	-7.87983029959	154	1	1.1	0.9	;
	129	1	60.454486687	6.0454486687	0	0	4	1.02176408248	-8.25888817756	154	1	1.1	0.9	;
	130	1	34.6157692314	7.64766888058	0	0	4	1.02043714081	-6.59122869655	345	1	1.05	0.95	;
	131	1	195.983799206	19.5983799206	0	0	4	1.01810220205	-7.75900391192	154	1	1.1	0.9	;
	132	1	105.204934784	10.5204934784	0	0	4	1.02247845084	-8.05455191093	154	1	1.1	0.9	;
	133	1	285.268740621	31.4883962001	0	0	4	1.01466793416	-7.61164323775	345	1	1.05	0.95	;
	134	1	717.40265559	71.740265559	0	0	4	1.01424923155	-7.31278869362	345	1	1.05	0.95	;
	135	1	151.764781399	15.2250927807	0	0	4	1.02179769412	-8.31528124913	154	1	1.1	0.9	;
	136	1	175.081267664	17.5081267664	0	0	4	1.02115109408	-7.49259655664	345	1	1.05	0.95	;
	137	2	2058.45727828	208.361681413	0	0	4	1.01090290289	-7.95292083474	345	1	1.05	0.95	;
	138	1	45.0255673116	4.50255673116	0	0	4	1.01867134688	-7.82772142544	154	1	1.1	0.9	;
	139	1	47.7694715313	4.77694715313	0	0	4	1.02380352604	-8.06211159539	154	1	1.1	0.9	;
	140	1	23.4631877285	5.5240430976	0	0	4	1.02138891697	-7.87317722388	154	1	1.1	0.9	;
	141	1	57.4192172505	5.74192172505	0	0	4	1.02264916847	-7.81205385477	154	1	1.1	0.9	;
	142	1	78.0205145089	7.80205145089	0	0	4	1.01706805595	-8.00583384814	154	1	1.1	0.9	;
	143	1	112.116577315	11.2177734106	0	0	4	1.02325740409	-7.81542054116	154	1	1.1	0.9	;
	144	1	51.3875674431	5.16028448042	0	0	4	1.02227717445	-8.40853636956	154	1	1.1	0.9	;
	145	1	57.3107095993	16.0293913543	0	0	4	1.02163817244	-8.15538575453	154	1	1.1	0.9	;
	146	1	-4.99367482593	4.68822424306	0	0	5	0.99378459868	0.441878339044	154	1	1.1	0.9	;
	147	1	63.5512480009	6.35512480009	0	0	5	1.01440796214	-6.12941229487	154	1	1.1	0.9	;
	148	1	344.07377664	34.407377664	0	0	5	0.984625223031	-4.82450295361	154	1	1.1	0.9	;
	149	2	1361.19179047	136.119179047	0	0	5	0.991123456313	-2.9027337863	345	1	1.05	0.95	;
	150	1	637.429369744	75.6956432717	0	0	5	0.993635670343	2.49434934845	345	1	1.05	0.95	;
	151	1	507.788640795	63.9747524299	0	0	5	0.994768283623	2.5139964114	345	1	1.05	0.95	;
	152	1	286.715823519	28.6715823519	0	0	5	0.994729262588	-2.31803809377	345	1	1.05	0.95	;
	153	1	224.673100329	22.4673100329	0	0	5	0.988334693525	-0.895427863003	154	1	1.1	0.9	;
	154	1	153.780478781	15.3781392312	0	0	5	0.990216821876	-3.47694121627	154	1	1.1	0.9	;
	155	1	430.897430687	43.091450385	0	0	5	0.991127161897	-3.83090127635	154	1	1.1	0.9	;
	156	1	464.235357997	46.4235357997	0	0	5	0.991018325719	-2.65802042991	154	1	1.1	0.9	;
	157	1	218.54585228	21.854585228	0	0	5	0.99207712548	-3.99232066396	154	1	1.1	0.9	;
	158	1	-359.912951748	57.1745630858	0	0	5	0.994188549794	2.57369006198	154	1	1.1	0.9	;
	159	1	397.654002841	39.7654002841	0	0	5	0.991981042989	-1.53359569534	345	1	1.05	0.95	;
	160	1	1134.89325485	113.489325485	0	0	5	0.998457519464	-4.66308290327	154	1	1.1	0.9	;
	161	1	187.136712277	18.7136712277	0	0	5	1.00140726223	-2.6486317202	345	1	1.05	0.95	;
	162	1	67.5247620216	6.75247620216	0	0	5	1.00089251174	-4.38898778174	154	1	1.1	0.9	;
	163	1	71.0227388569	7.10227388569	0	0	5	0.995878984385	-0.339171410442	345	1	1.05	0.95	;
	164	1	56.8666399423	5.97291861969	0	0	5	1.00156915202	-3.64956376121	154	1	1.1	0.9	;
	165	1	1741.58553633	174.159048926	0	0	5	0.99107906417	1.14124117725	345	1	1.05	0.95	;
	166	2	552.014653224	55.9400946673	0	0	5	0.997826978684	3.89606447688	345	1	1.05	0.95	;
	167	2	2324.37336447	232.437968173	0	0	5	0.996664666862	3.45502296359	345	1	1.05	0.95	;
	168	1	148.022943696	14.8022943696	0	0	5	1.00120669754	1.17876539979	765	1	1.05	0.95	;
	169	1	41.7154064082	4.17154064082	0	0	5	1.00179023974	-4.43685766449	154	1	1.1	0.9	;
	170	1	159.04931598	18.3305464649	0	0	5	0.994442339504	0.0160400079226	154	1	1.1	0.9	;
	171	1	19.9934342287	5.13139848121	0	0	5	1.00441035361	-3.69060575214	345	1	1.05	0.95	;
	172	2	425.129653157	54.1177107595	0	0	5	0.993576794565	2.47835988378	154	1	1.1	0.9	;
	173	1	34.1226830476	5.61575709405	0	0	5	1.00368312831	-3.62881403934	345	1	1.05	0.95	;
	174	1	407.219785577	40.7219785577	0	0	5	0.999442409665	-3.21009253173	345	1	1.05	0.95	;
	175	2	182.947323292	18.4633157791	0	0	5	1.00305420874	6.20554151094	765	1	1.05	0.95	;
	176	1	535.027540272	53.5027540272	0	0	5	0.995807949494	-2.19693726975	345	1	1.05	0.95	;
	177	1	684.081331829	68.408795063	0	0	5	0.991854338035	-1.30906083661	345	1	1.05	0.95	;
	178	1	773.260962001	77.3263926781	0	0	5	0.985506770354	-2.36635709007	154	1	1.1	0.9	;
	179	1	412.733177674	41.2733177674	0	0	5	0.998006002092	4.27349461121	345	1	1.05	0.95	;
	180	1	386.027558968	38.6027558968	0	0	5	0.999142386133	-4.15414607063	154	1	1.1	0.9	;
	181	1	349.958852974	34.9958852974	0	0	5	0.997310926158	3.64789146922	345	1	1.05	0.95	;
	182	1	631.779690764	63.1792221425	0	0	5	0.986608944411	-2.48431731293	345	1	1.05	0.95	;
	183	1	285.800096499	28.5804301331	0	0	5	0.992236366596	-1.3770924226	345	1	1.05	0.95	;
	184	1	564.686918273	56.4697143386	0	0	5	0.997482653483	4.15748615881	345	1	1.05	0.95	;
	185	1	322.715749709	32.2715749709	0	0	5	0.996086856316	3.54468221203	154	1	1.1	0.9	;
	186	2	483.225914226	48.3253429201	0	0	5	0.998361520262	4.03562986511	345	1	1.05	0.95	;
	187	1	66.7891369694	6.67891369694	0	0	5	0.998332779418	4.0264547859	345	1	1.05	0.95	;
	188	1	60.9587787105	6.09985759284	0	0	5	1.01121159178	-6.11258790209	154	1	1.1	0.9	;
	189	1	109.666522606	11.1346910517	0	0	5	0.999359892596	-3.17371468761	154	1	1.1	0.9	;
	190	3	196.851531048	19.9798876747	0	0	5	1	0	345	1	1.05	0.95	;
	191	1	278.06549673	27.8078036721	0	0	5	0.995107528068	-4.09992645318	154	1	1.1	0.9	;
	192	1	138.895540007	13.8901724459	0	0	5	0.99719423437	-3.36036516519	154	1	1.1	0.9	;
	193	2	39.6203553692	3.96203553692	0	0	5	1.01342365117	-5.38431875926	345	1	1.05	0.95	;
];

% generator data
%	bus	Pg	Qg	Qmax	Qmin	Vg	mBase	status	Pmax	Pmin	Pc1	Pc2	Qc1min	Qc1max	Qc2min	Qc2max	ramp_agc	ramp_10	ramp_30	ramp_q	apf
mpc.gen = [
	3	0	0	362.5	-362.5	1.01575645925	100	0	725	377	0	0	0	0	0	0	0	120.8333333	362.5	362.5	0	;
	3	0	0	362.5	-362.5	1.01575645925	100	0	725	377	0	0	0	0	0	0	0	120.8333333	362.5	362.5	0	;
	3	0	0	437.1	-437.1	1.01575645925	100	0	874.2	454.584	0	0	0	0	0	0	0	145.7	437.1	437.1	0	;
	4	0	0	262.15	-262.15	1.0169786474	100	0	524.3	272.636	0	0	0	0	0	0	0	87.38333333	262.15	262.15	0	;
	4	0	0	429.2	-429.2	1.0169786474	100	0	858.4	446.368	0	0	0	0	0	0	0	143.0666667	429.2	429.2	0	;
	4	0	0	429.2	-429.2	1.0169786474	100	0	858.4	446.368	0	0	0	0	0	0	0	143.0666667	429.2	429.2	0	;
	8	0	0	423.8	-423.8	1.01759836085	100	0	847.6	440.752	0	0	0	0	0	0	0	141.2666667	423.8	423.8	0	;
	8	0	0	423.8	-423.8	1.01759836085	100	0	847.6	440.752	0	0	0	0	0	0	0	141.2666667	423.8	423.8	0	;
	8	0	0	257.75	-257.75	1.01759836085	100	0	515.5	268.06	0	0	0	0	0	0	0	85.91666667	257.75	257.75	0	;
	9	0	0	57.705	-57.705	1.01970220544	100	0	115.41	60.0132	0	0	0	0	0	0	0	19.235	57.705	57.705	0	;
	9	0	0	18.5	-18.5	1.01970220544	100	0	37	19.24	0	0	0	0	0	0	0	6.166666667	18.5	18.5	0	;
	10	0	0	300	-300	1.01924443712	100	0	600	312	0	0	0	0	0	0	0	100	300	300	0	;
	10	295.323628723	35.7151375302	150	-150	1.01924443712	100	1	300	156	0	0	0	0	0	0	0	50	150	150	0	;
	19	0	0	184.5865	-184.5865	1.01985451276	100	0	369.173	191.96996	0	0	0	0	0	0	0	61.52883333	184.5865	184.5865	0	;
	19	364.411670339	37.0135295557	184.5865	-184.5865	1.01985451276	100	1	369.173	191.96996	0	0	0	0	0	0	0	61.52883333	184.5865	184.5865	0	;
	20	359.206361956	42.5093919745	181.9055	-181.9055	1.01925095125	100	1	363.811	189.18172	0	0	0	0	0	0	0	60.63516667	181.9055	181.9055	0	;
	21	445.287405735	33.7757451349	225	-225	1.01884044534	100	1	450	234	0	0	0	0	0	0	0	75	225	225	0	;
	21	0	0	225	-225	1.01884044534	100	0	450	234	0	0	0	0	0	0	0	75	225	225	0	;
	21	0	0	225	-225	1.01884044534	100	0	450	234	0	0	0	0	0	0	0	75	225	225	0	;
	21	0	0	225	-225	1.01884044534	100	0	450	234	0	0	0	0	0	0	0	75	225	225	0	;
	24	0	0	10.5	-10.5	1.01939967598	100	0	21	10.92	0	0	0	0	0	0	0	3.5	10.5	10.5	0	;
	26	0	0	0	0	1.019896055	100	0	0	0	0	0	0	0	0	0	0	0	0	0	0	;
	27	0	0	63.5	-63.5	1.02115208911	100	0	127	66.04	0	0	0	0	0	0	0	21.16666667	63.5	63.5	0	;
	27	182.8251596	21.8672844981	93.65	-93.65	1.02115208911	100	1	187.3	97.396	0	0	0	0	0	0	0	31.21666667	93.65	93.65	0	;
	34	220.68162523	26.159900715	112.5	-112.5	1.0204283791	100	1	225	117	0	0	0	0	0	0	0	37.5	112.5	112.5	0	;
	34	0	0	112.5	-112.5	1.0204283791	100	0	225	117	0	0	0	0	0	0	0	37.5	112.5	112.5	0	;
	34	0	0	112.5	-112.5	1.0204283791	100	0	225	117	0	0	0	0	0	0	0	37.5	112.5	112.5	0	;
	34	219.848409268	26.159900715	112.5	-112.5	1.0204283791	100	1	225	117	0	0	0	0	0	0	0	37.5	112.5	112.5	0	;
	34	219.75704087	26.159900715	112.5	-112.5	1.0204283791	100	1	225	117	0	0	0	0	0	0	0	37.5	112.5	112.5	0	;
	34	219.848409268	26.159900715	112.5	-112.5	1.0204283791	100	1	225	117	0	0	0	0	0	0	0	37.5	112.5	112.5	0	;
	34	0	0	112.5	-112.5	1.0204283791	100	0	225	117	0	0	0	0	0	0	0	37.5	112.5	112.5	0	;
	34	219.75704087	26.159900715	112.5	-112.5	1.0204283791	100	1	225	117	0	0	0	0	0	0	0	37.5	112.5	112.5	0	;
	34	0	0	251.7695	-251.7695	1.0204283791	100	0	503.539	261.84028	0	0	0	0	0	0	0	83.92316667	251.7695	251.7695	0	;
	34	0	0	254.454	-254.454	1.0204283791	100	0	508.908	264.63216	0	0	0	0	0	0	0	84.818	254.454	254.454	0	;
	34	0	0	225	-225	1.0204283791	100	0	450	234	0	0	0	0	0	0	0	75	225	225	0	;
	34	445.256449939	33.7074762235	225	-225	1.0204283791	100	1	450	234	0	0	0	0	0	0	0	75	225	225	0	;
	34	0	0	225	-225	1.0204283791	100	0	450	234	0	0	0	0	0	0	0	75	225	225	0	;
	34	570.825440354	23.8899652512	287.3	-287.3	1.0204283791	100	1	574.6	298.792	0	0	0	0	0	0	0	95.76666667	287.3	287.3	0	;
	34	570.120598649	23.8899652512	287.3	-287.3	1.0204283791	100	1	574.6	298.792	0	0	0	0	0	0	0	95.76666667	287.3	287.3	0	;
	34	0	0	187.8	-187.8	1.0204283791	100	0	375.6	195.312	0	0	0	0	0	0	0	62.6	187.8	187.8	0	;
	34	0	0	187.8	-187.8	1.0204283791	100	0	375.6	195.312	0	0	0	0	0	0	0	62.6	187.8	187.8	0	;
	34	0	0	187.8	-187.8	1.0204283791	100	0	375.6	195.312	0	0	0	0	0	0	0	62.6	187.8	187.8	0	;
	36	0	0	0	0	1.01954288641	100	0	0	0	0	0	0	0	0	0	0	0	0	0	0	;
	36	0	0	0	0	1.01954288641	100	0	0	0	0	0	0	0	0	0	0	0	0	0	0	;
	36	0	0	206.3	-206.3	1.01954288641	100	0	412.6	214.552	0	0	0	0	0	0	0	68.76666667	206.3	206.3	0	;
	36	0	0	73.157	-73.157	1.01954288641	100	0	146.314	76.08328	0	0	0	0	0	0	0	24.38566667	73.157	73.157	0	;
	37	0	0	12	-12	1.01920180073	100	0	24	12.48	0	0	0	0	0	0	0	4	12	12	0	;
	39	0	0	240.845	-240.845	1.01476735002	100	0	481.69	250.4788	0	0	0	0	0	0	0	80.28166667	240.845	240.845	0	;
	39	0	0	240.845	-240.845	1.01476735002	100	0	481.69	250.4788	0	0	0	0	0	0	0	80.28166667	240.845	240.845	0	;
	40	0	0	30	-30	1.01916275787	100	0	60	31.2	0	0	0	0	0	0	0	10	30	30	0	;
	40	0	0	375.6	-375.6	1.01916275787	100	0	751.2	390.624	0	0	0	0	0	0	0	125.2	375.6	375.6	0	;
	40	795.652350685	7.99124177631	400	-400	1.01916275787	100	1	800	320	0	0	0	0	0	0	0	88	264	400	0	;
	40	795.652350685	7.99124177631	400	-400	1.01916275787	100	1	800	320	0	0	0	0	0	0	0	88	264	400	0	;
	40	865.70476604	2.57822077522	435	-435	1.01916275787	100	1	870	348	0	0	0	0	0	0	0	95.7	287.1	435	0	;
	40	865.70476604	2.57822077522	435	-435	1.01916275787	100	1	870	348	0	0	0	0	0	0	0	95.7	287.1	435	0	;
	40	865.70476604	2.57822077522	435	-435	1.01916275787	100	1	870	348	0	0	0	0	0	0	0	95.7	287.1	435	0	;
	40	865.70476604	2.57822077522	435	-435	1.01916275787	100	1	870	348	0	0	0	0	0	0	0	95.7	287.1	435	0	;
	43	0	0	72.394	-72.394	1.01545424586	100	0	144.788	75.28976	0	0	0	0	0	0	0	24.13133333	72.394	72.394	0	;
	43	0	0	0	0	1.01545424586	100	0	0	0	0	0	0	0	0	0	0	0	0	0	0	;
	45	0	0	255.9	-255.9	1.01787013431	100	0	511.8	266.136	0	0	0	0	0	0	0	85.3	255.9	255.9	0	;
	47	0	0	0	0	1.01566544152	100	0	0	0	0	0	0	0	0	0	0	0	0	0	0	;
	47	0	0	0	0	1.01566544152	100	0	0	0	0	0	0	0	0	0	0	0	0	0	0	;
	47	0	0	0	0	1.01566544152	100	0	0	0	0	0	0	0	0	0	0	0	0	0	0	;
	47	0	0	0	0	1.01566544152	100	0	0	0	0	0	0	0	0	0	0	0	0	0	0	;
	47	0	0	434.25	-434.25	1.01566544152	100	0	868.5	451.62	0	0	0	0	0	0	0	144.75	434.25	434.25	0	;
	47	0	0	431.65	-431.65	1.01566544152	100	0	863.3	448.916	0	0	0	0	0	0	0	143.8833333	431.65	431.65	0	;
	48	0	0	218.05	-218.05	1.01870862175	100	0	436.1	226.772	0	0	0	0	0	0	0	72.68333333	218.05	218.05	0	;
	48	0	0	189.19	-189.19	1.01870862175	100	0	378.38	196.7576	0	0	0	0	0	0	0	63.06333333	189.19	189.19	0	;
	48	373.940255902	35.8034177212	189.19	-189.19	1.01870862175	100	1	378.38	196.7576	0	0	0	0	0	0	0	63.06333333	189.19	189.19	0	;
	49	0	0	384.915	-384.915	1.01720211952	100	0	769.83	400.3116	0	0	0	0	0	0	0	128.305	384.915	384.915	0	;
	53	0	0	250.375	-250.375	1.02737304185	100	0	500.75	260.39	0	0	0	0	0	0	0	83.45833333	250.375	250.375	0	;
	53	0	0	266.5	-266.5	1.02737304185	100	0	533	277.16	0	0	0	0	0	0	0	88.83333333	266.5	266.5	0	;
	53	0	0	191	-191	1.02737304185	100	0	382	198.64	0	0	0	0	0	0	0	63.66666667	191	191	0	;
	53	0	0	423	-423	1.02737304185	100	0	846	439.92	0	0	0	0	0	0	0	141	423	423	0	;
	53	0	0	0	0	1.02737304185	100	0	0	0	0	0	0	0	0	0	0	0	0	0	0	;
	53	0	0	0	0	1.02737304185	100	0	0	0	0	0	0	0	0	0	0	0	0	0	0	;
	53	496.263336203	18.0919893347	250	-250	1.02737304185	100	1	500	200	0	0	0	0	0	0	0	55	165	250	0	;
	53	496.263336203	18.0919893347	250	-250	1.02737304185	100	1	500	200	0	0	0	0	0	0	0	55	165	250	0	;
	53	496.263336203	18.0919893347	250	-250	1.02737304185	100	1	500	200	0	0	0	0	0	0	0	55	165	250	0	;
	53	496.263336203	18.0919893347	250	-250	1.02737304185	100	1	500	200	0	0	0	0	0	0	0	55	165	250	0	;
	53	496.263336203	18.0919893347	250	-250	1.02737304185	100	1	500	200	0	0	0	0	0	0	0	55	165	250	0	;
	53	496.263336203	18.0919893347	250	-250	1.02737304185	100	1	500	200	0	0	0	0	0	0	0	55	165	250	0	;
	53	1016.17083086	-20.1738255765	510	-510	1.02737304185	100	1	1020	408	0	0	0	0	0	0	0	112.2	336.6	510	0	;
	53	1016.17083086	-20.1738255765	510	-510	1.02737304185	100	1	1020	408	0	0	0	0	0	0	0	112.2	336.6	510	0	;
	57	0	0	50.85	-50.85	1.01910342184	100	0	101.7	52.884	0	0	0	0	0	0	0	16.95	50.85	50.85	0	;
	58	0	0	0	0	1.02716525983	100	0	0	0	0	0	0	0	0	0	0	0	0	0	0	;
	59	0	0	173.165	-173.165	1.0287538269	100	0	346.33	180.0916	0	0	0	0	0	0	0	57.72166667	173.165	173.165	0	;
	59	0	0	0	0	1.0287538269	100	0	0	0	0	0	0	0	0	0	0	0	0	0	0	;
	59	0	0	0	0	1.0287538269	100	0	0	0	0	0	0	0	0	0	0	0	0	0	0	;
	59	0	0	0	0	1.0287538269	100	0	0	0	0	0	0	0	0	0	0	0	0	0	0	;
	59	0	0	0	0	1.0287538269	100	0	0	0	0	0	0	0	0	0	0	0	0	0	0	;
	59	0	0	0	0	1.0287538269	100	0	0	0	0	0	0	0	0	0	0	0	0	0	0	;
	59	0	0	0	0	1.0287538269	100	0	0	0	0	0	0	0	0	0	0	0	0	0	0	;
	59	496.346748779	18.068631981	250	-250	1.0287538269	100	1	500	200	0	0	0	0	0	0	0	55	165	250	0	;
	59	496.346748779	18.068631981	250	-250	1.0287538269	100	1	500	200	0	0	0	0	0	0	0	55	165	250	0	;
	59	1046.2257312	-20.6482156325	525	-525	1.0287538269	100	1	1050	420	0	0	0	0	0	0	0	115.5	346.5	525	0	;
	59	1046.2257312	-20.6482156325	525	-525	1.0287538269	100	1	1050	420	0	0	0	0	0	0	0	115.5	346.5	525	0	;
	62	0	0	0	0	1.02090835004	100	0	0	0	0	0	0	0	0	0	0	0	0	0	0	;
	64	0	0	265.2205	-265.2205	1.0194101506	100	0	530.441	275.82932	0	0	0	0	0	0	0	88.40683333	265.2205	265.2205	0	;
	70	0	0	215.6	-215.6	1.01221203033	100	0	431.2	224.224	0	0	0	0	0	0	0	71.86666667	215.6	215.6	0	;
	71	1034.2897336	6.21147504562	520	-520	1.01557705794	100	1	1040	416	0	0	0	0	0	0	0	114.4	343.2	520	0	;
	73	0	0	0	0	1.0133528625	100	0	0	0	0	0	0	0	0	0	0	0	0	0	0	;
	73	0	0	0	0	1.0133528625	100	0	0	0	0	0	0	0	0	0	0	0	0	0	0	;
	73	586.761699749	45.6460010167	297.5	-297.5	1.0133528625	100	1	595	238	0	0	0	0	0	0	0	65.45	196.35	297.5	0	;
	73	587.499728677	45.6460010167	297.5	-297.5	1.0133528625	100	1	595	238	0	0	0	0	0	0	0	65.45	196.35	297.5	0	;
	79	0	0	424	-424	0.998219333213	100	0	848	440.96	0	0	0	0	0	0	0	141.3333333	424	424	0	;
	75	514.205797967	49.4348688401	511	-511	1.01559721634	100	1	1022	408.8	0	0	0	0	0	0	0	112.42	337.26	511	0	;
	75	649.624740123	49.4348688401	511	-511	1.01559721634	100	1	1022	408.8	0	0	0	0	0	0	0	112.42	337.26	511	0	;
	82	911.384490082	13.1201791655	475	-475	1.00727325888	100	1	950	902.5	0	0	0	0	0	0	0	28.5	85.5	475	0	;
	82	911.384490082	13.1201791655	475	-475	1.00727325888	100	1	950	902.5	0	0	0	0	0	0	0	28.5	85.5	475	0	;
	82	959.036051525	8.76272834919	500	-500	1.00727325888	100	1	1000	950	0	0	0	0	0	0	0	30	90	500	0	;
	82	959.036051525	8.76272834919	500	-500	1.00727325888	100	1	1000	950	0	0	0	0	0	0	0	30	90	500	0	;
	82	959.036051525	8.76272834919	500	-500	1.00727325888	100	1	1000	950	0	0	0	0	0	0	0	30	90	500	0	;
	82	959.036051525	8.76272834919	500	-500	1.00727325888	100	1	1000	950	0	0	0	0	0	0	0	30	90	500	0	;
	82	1340.2875983	-23.0394680498	700	-700	1.00727325888	100	1	1400	1330	0	0	0	0	0	0	0	42	126	700	0	;
	87	359.348593998	-23.4109027715	180.8	-180.8	0.998048703925	100	1	361.6	188.032	0	0	0	0	0	0	0	60.26666667	180.8	180.8	0	;
	98	0	0	44	-44	1.01679867694	100	0	88	45.76	0	0	0	0	0	0	0	14.66666667	44	44	0	;
	99	44.9744531757	0.340796673376	24.15	-24.15	1.01711528017	100	1	48.3	25.116	0	0	0	0	0	0	0	8.05	24.15	24.15	0	;
	100	0	0	225	-225	1.02822041871	100	0	450	234	0	0	0	0	0	0	0	75	225	225	0	;
	100	0	0	225	-225	1.02822041871	100	0	450	234	0	0	0	0	0	0	0	75	225	225	0	;
	100	0	0	225	-225	1.02822041871	100	0	450	234	0	0	0	0	0	0	0	75	225	225	0	;
	100	546.650381242	6.90919456325	275	-275	1.02822041871	100	1	550	220	0	0	0	0	0	0	0	60.5	181.5	275	0	;
	100	496.684714371	10.678722279	250	-250	1.02822041871	100	1	500	200	0	0	0	0	0	0	0	55	165	250	0	;
	100	0	0	0	0	1.02822041871	100	0	0	0	0	0	0	0	0	0	0	0	0	0	0	;
	100	0	0	0	0	1.02822041871	100	0	0	0	0	0	0	0	0	0	0	0	0	0	0	;
	100	496.684714371	10.678722279	250	-250	1.02822041871	100	1	500	200	0	0	0	0	0	0	0	55	165	250	0	;
	100	496.684714371	10.678722279	250	-250	1.02822041871	100	1	500	200	0	0	0	0	0	0	0	55	165	250	0	;
	100	1015.56950357	-27.3087200399	509.515	-509.515	1.02822041871	100	1	1019.03	407.612	0	0	0	0	0	0	0	112.0933	336.2799	509.515	0	;
	100	1015.56950357	-27.3087200399	509.515	-509.515	1.02822041871	100	1	1019.03	407.612	0	0	0	0	0	0	0	112.0933	336.2799	509.515	0	;
	106	1014.70763396	-18.9116589652	509	-509	1.02619888572	100	1	1018	407.2	0	0	0	0	0	0	0	111.98	335.94	509	0	;
	108	0	0	359.2	-359.2	1.02523979431	100	0	718.4	373.568	0	0	0	0	0	0	0	119.7333333	359.2	359.2	0	;
	124	946.974013949	-38.4167967965	475	-475	1.02555799299	100	1	950	902.5	0	0	0	0	0	0	0	28.5	85.5	475	0	;
	124	946.974013949	-38.4167967965	475	-475	1.02555799299	100	1	950	902.5	0	0	0	0	0	0	0	28.5	85.5	475	0	;
	124	996.96612547	-41.1131909498	500	-500	1.02555799299	100	1	1000	950	0	0	0	0	0	0	0	30	90	500	0	;
	124	996.96612547	-41.1131909498	500	-500	1.02555799299	100	1	1000	950	0	0	0	0	0	0	0	30	90	500	0	;
	124	996.96612547	-41.1131909498	500	-500	1.02555799299	100	1	1000	950	0	0	0	0	0	0	0	30	90	500	0	;
	124	996.96612547	-41.1131909498	500	-500	1.02555799299	100	1	1000	950	0	0	0	0	0	0	0	30	90	500	0	;
	128	0	0	57.623	-57.623	1.01603777605	100	0	115.246	59.92792	0	0	0	0	0	0	0	19.20766667	57.623	57.623	0	;
	134	0	0	262.75	-262.75	1.01424923155	100	0	525.5	273.26	0	0	0	0	0	0	0	87.58333333	262.75	262.75	0	;
	134	0	0	432.1	-432.1	1.01424923155	100	0	864.2	449.384	0	0	0	0	0	0	0	144.0333333	432.1	432.1	0	;
	134	0	0	247.3	-247.3	1.01424923155	100	0	494.6	257.192	0	0	0	0	0	0	0	82.43333333	247.3	247.3	0	;
	134	0	0	247.3	-247.3	1.01424923155	100	0	494.6	257.192	0	0	0	0	0	0	0	82.43333333	247.3	247.3	0	;
	137	338.04327615	-0.317006042505	170	-170	1.01090290289	100	1	340	136	0	0	0	0	0	0	0	37.4	112.2	170	0	;
	137	326.532939174	-0.308815931734	164.3	-164.3	1.01090290289	100	1	328.6	131.44	0	0	0	0	0	0	0	36.146	108.438	164.3	0	;
	156	0	0	185.35	-185.35	0.991018325719	100	0	370.7	192.764	0	0	0	0	0	0	0	61.78333333	185.35	185.35	0	;
	160	0	0	0	0	0.998457519464	100	0	0	0	0	0	0	0	0	0	0	0	0	0	0	;
	166	691.800892109	45.9071695947	350	-350	0.997826978684	100	1	700	665	0	0	0	0	0	0	0	21	63	350	0	;
	166	691.800892109	45.9071695947	350	-350	0.997826978684	100	1	700	665	0	0	0	0	0	0	0	21	63	350	0	;
	166	691.800892109	45.9071695947	350	-350	0.997826978684	100	1	700	665	0	0	0	0	0	0	0	21	63	350	0	;
	166	990.51520332	46.8642089613	500	-500	0.997826978684	100	1	1000	950	0	0	0	0	0	0	0	30	90	500	0	;
	166	990.51520332	46.8642089613	500	-500	0.997826978684	100	1	1000	950	0	0	0	0	0	0	0	30	90	500	0	;
	167	0	0	150	-150	0.996664666862	100	0	300	156	0	0	0	0	0	0	0	50	150	150	0	;
	167	0	0	225	-225	0.996664666862	100	0	450	234	0	0	0	0	0	0	0	75	225	225	0	;
	167	0	0	225	-225	0.996664666862	100	0	450	234	0	0	0	0	0	0	0	75	225	225	0	;
	167	0	0	435.95	-435.95	0.996664666862	100	0	871.9	453.388	0	0	0	0	0	0	0	145.3166667	435.95	435.95	0	;
	167	0	0	221.4	-221.4	0.996664666862	100	0	442.8	230.256	0	0	0	0	0	0	0	73.8	221.4	221.4	0	;
	172	0	0	22.918	-22.918	0.993576794565	100	0	45.836	23.83472	0	0	0	0	0	0	0	7.639333333	22.918	22.918	0	;
	175	636.331088671	30.418140397	325	-325	1.00305420874	100	1	650	617.5	0	0	0	0	0	0	0	19.5	58.5	325	0	;
	175	930.071263317	29.3922680678	475	-475	1.00305420874	100	1	950	902.5	0	0	0	0	0	0	0	28.5	85.5	475	0	;
	175	930.071263317	29.3922680678	475	-475	1.00305420874	100	1	950	902.5	0	0	0	0	0	0	0	28.5	85.5	475	0	;
	175	978.942770957	29.267380103	500	-500	1.00305420874	100	1	1000	950	0	0	0	0	0	0	0	30	90	500	0	;
	175	978.942770957	29.267380103	500	-500	1.00305420874	100	1	1000	950	0	0	0	0	0	0	0	30	90	500	0	;
	175	1368.83224522	29.5270377186	700	-700	1.00305420874	100	1	1400	1330	0	0	0	0	0	0	0	42	126	700	0	;
	175	1368.83224522	29.5270377186	700	-700	1.00305420874	100	1	1400	1330	0	0	0	0	0	0	0	42	126	700	0	;
	180	0	0	13.15	-13.15	0.999142386133	100	0	26.3	13.676	0	0	0	0	0	0	0	4.383333333	13.15	13.15	0	;
	186	0	0	225	-225	0.998361520262	100	0	450	234	0	0	0	0	0	0	0	75	225	225	0	;
	186	380.200463773	28.7086839747	225	-225	0.998361520262	100	1	450	234	0	0	0	0	0	0	0	75	225	225	0	;
	186	380.200463773	28.7086839747	225	-225	0.998361520262	100	1	450	234	0	0	0	0	0	0	0	75	225	225	0	;
	186	376.528506915	28.7086839747	225	-225	0.998361520262	100	1	450	234	0	0	0	0	0	0	0	75	225	225	0	;
	190	0	0	0	0	1	100	0	0	0	0	0	0	0	0	0	0	0	0	0	0	;
	190	0	0	0	0	1	100	0	0	0	0	0	0	0	0	0	0	0	0	0	0	;
	190	0	0	0	0	1	100	0	0	0	0	0	0	0	0	0	0	0	0	0	0	;
	190	0	0	0	0	1	100	0	0	0	0	0	0	0	0	0	0	0	0	0	0	;
	190	987.290865938	-10.678894205	520	-520	1	100	1	1040	416	0	0	0	0	0	0	0	114.4	343.2	520	0	;
	190	987.290865938	-10.678894205	520	-520	1	100	1	1040	416	0	0	0	0	0	0	0	114.4	343.2	520	0	;
	193	0	0	0	0	1.01342365117	100	0	0	0	0	0	0	0	0	0	0	0	0	0	0	;
	193	0	0	0	0	1.01342365117	100	0	0	0	0	0	0	0	0	0	0	0	0	0	0	;
	193	0	0	0	0	1.01342365117	100	0	0	0	0	0	0	0	0	0	0	0	0	0	0	;
	193	0	0	0	0	1.01342365117	100	0	0	0	0	0	0	0	0	0	0	0	0	0	0	;
	193	0	0	0	0	1.01342365117	100	0	0	0	0	0	0	0	0	0	0	0	0	0	0	;
	193	0	0	0	0	1.01342365117	100	0	0	0	0	0	0	0	0	0	0	0	0	0	0	;
	193	498.385302338	-3.97839829883	250	-250	1.01342365117	100	1	500	200	0	0	0	0	0	0	0	55	165	250	0	;
	193	498.385302338	-3.97839829883	250	-250	1.01342365117	100	1	500	200	0	0	0	0	0	0	0	55	165	250	0	;
	71	1034.2897336	6.21147504562	520	-520	1.01557705794	100	1	1040	416	0	0	0	0	0	0	0	114.4	343.2	520	0	;
	60	0	0	247.5	-247.5	1.02389166899	100	0	495	257.4	0	0	0	0	0	0	0	82.5	247.5	247.5	0	;
	42	1001.18048026	12.1439218172	512.7	-512.7	1.00753403663	100	1	1025.4	533.208	0	0	0	0	0	0	0	170.9	512.7	512.7	0	;
	11	0	0	0	0	1.01759053192	100	0	0	0	0	0	0	0	0	0	0	0	0	0	0	;
	172	112.706211129	11.331089788	59.486	-59.486	0.993576794565	100	1	118.972	61.86544	0	0	0	0	0	0	0	19.8286666667	59.486	59.486	0	;
	82	1340.2875983	-23.0394680498	700	-700	1.00727325888	100	1	1400	1330	0	0	0	0	0	0	0	42	126	700	0	;
	75	484.758978244	48.8445588555	525	-525	1.01559721634	100	1	1050	420	0	0	0	0	0	0	0	115.5	346.5	525	0	;
	64	0	0	298.5855	-298.5855	1.0194101506	100	0	597.171	310.52892	0	0	0	0	0	0	0	99.5285	298.5855	298.5855	0	;
	160	0	0	135	-135	0.998457519464	100	0	270	140.4	0	0	0	0	0	0	0	45	135	135	0	;
	192	0	0	506	-506	0.99719423437	100	0	1012	526.24	0	0	0	0	0	0	0	168.666666667	506	506	0	;
	167	877.901816176	45.0928346743	552.3	-552.3	0.996664666862	100	1	1104.6	574.392	0	0	0	0	0	0	0	184.1	552.3	552.3	0	;
	75	0	0	525	-525	1.01559721634	100	0	1050	546	0	0	0	0	0	0	0	175	525	525	0	;
	62	0	0	135	-135	1.02090835004	100	0	270	140.4	0	0	0	0	0	0	0	45	135	135	0	;
	52	557.701140191	27.5421750871	280.5	-280.5	1.01174585753	100	1	561	291.72	0	0	0	0	0	0	0	93.5	280.5	280.5	0	;
	11	0	0	247.73	-247.73	1.01759053192	100	0	495.46	257.6392	0	0	0	0	0	0	0	82.5766666667	247.73	247.73	0	;
	24	0	0	142.5	-142.5	1.01939967598	100	0	285	148.2	0	0	0	0	0	0	0	47.5	142.5	142.5	0	;
	26	0	0	249	-249	1.019896055	100	0	498	258.96	0	0	0	0	0	0	0	83	249	249	0	;
...
];

% branch data
%	fbus	tbus	r	x	b	rateA	rateB	rateC	ratio	angle	status	angmin	angmax	Pf	Qf	Pt	Qt
mpc.branch = [
	1	2	0.001953667	0.017794207	0.057753945	904	904	904	0	0	1	-30	30	157.060625418	-32.3463089769	-156.574839832	30.826042545	;
	1	3	0.002346024	0.021367842	0.069352749	904	904	904	0	0	1	-30	30	124.48168175	-27.1849641898	-124.114879852	23.3875495896	;
	1	66	0.002789894	0.025410654	0.082474341	904	904	904	0	0	1	-30	30	-352.071743467	52.4783300122	355.527127675	-29.4701798271	;
	2	3	0.000230027	0.002463512	0.207508013	2172	2172	2172	0	0	1	-30	30	-54.8838965636	-2.7346743918	54.8907529936	-18.6032033163	;
	2	4	0.001097043	0.009991982	0.032430577	904	904	904	0	0	1	-30	30	64.8797891785	-20.312379526	-64.8313444482	17.403305128	;
	2	6	0.004587512	0.041783555	0.135615211	904	904	904	0	0	1	-30	30	61.3350363374	-16.3033797417	-61.1639395419	3.84857541372	;
	3	4	0.000157872	0.001690763	0.142417379	2172	2172	2172	0	0	1	-30	30	465.888992792	-122.414558318	-465.53661638	111.476643406	;
	3	7	0.001539844	0.014025061	0.04552058	904	904	904	0	0	1	-30	30	70.8607793066	-26.1546556356	-70.7773817561	22.2071354446	;
	3	28	0.000668777	0.007162388	0.603306441	2172	2172	2172	0	0	1	-30	30	-858.487353622	104.688697033	863.384073511	-114.367021386	;
	4	7	0.001330617	0.012119404	0.039335464	904	904	904	0	0	1	-30	30	17.3221541218	-12.6530409829	-17.3168429736	8.62899526564	;
	4	8	0.000413018	0.004423289	0.372585094	2172	2172	2172	0	0	1	-30	30	333.107743292	-62.189890826	-332.657272707	28.4563478303	;
	5	16	0.00309813	0.028218105	0.091586372	904	904	904	0	0	1	-30	30	569.772685761	-19.9091122157	-560.128360735	98.2003431654	;
	5	20	0.003233724	0.029453105	0.095594761	904	904	904	0	0	1	-30	30	517.216400862	-15.5162398877	-508.923809831	81.0923395327	;
	5	66	0.002753227	0.025076687	0.081390398	904	904	904	0	0	1	-30	30	104.812422756	21.3667122703	-104.505293325	-26.9904318098	;
	5	70	0.001710666	0.015580931	0.050570403	904	904	904	0	0	1	-30	30	169.692848868	42.1392252677	-169.187967795	-42.770150349	;
	6	8	0.001796592	0.016363559	0.053110546	904	904	904	0	0	1	-30	30	-27.3534714225	-2.12381064733	27.3664695971	-3.25531182152	;
	6	11	0.001545809	0.014079394	0.045696926	904	904	904	0	0	1	-30	30	0.697518599253	-5.21850120691	-0.69738961316	0.489590351651	;
	7	9	0.000740338	0.006743076	0.021885732	904	904	904	0	0	1	-30	30	109.868152787	-38.1740826207	-109.772121474	36.7768350833	;
	7	14	0.000255269	0.002733843	0.230278712	2172	2172	2172	0	0	1	-30	30	296.505161802	-105.474605066	-296.267063287	84.1170226164	;
	7	28	0.000583767	0.00625196	0.526618746	2172	2172	2172	0	0	1	-30	30	-1144.00497258	191.071067576	1151.64550943	-163.588872136	;
	8	10	0.000160584	0.000184873	0.901984702	1416	1416	1416	0	0	1	-30	30	-1058.66064029	-32.157571949	1060.39902124	-59.3934137025	;
	8	11	0.000158062	0.001692798	0.142588761	2172	2172	2172	0	0	1	-30	30	271.323330211	-31.6344717669	-271.210062809	18.082488464	;
	8	14	0.000269282	0.002883925	0.242920462	2172	2172	2172	0	0	1	-30	30	-157.327537032	-76.0064725988	157.402366579	51.5982926374	;
	9	12	0.000119405	0.000137466	0.167672111	708	708	708	0	0	1	-30	30	167.609701347	-83.4066402654	-167.571034519	66.0183672165	;
	9	13	0.000176983	0.000203752	0.248523638	708	708	708	0	0	1	-30	30	-39.9186243116	-51.7167664602	39.9238984955	25.8778141108	;
	9	15	0.000297907	0.000342968	0.41832935	708	708	708	0	0	1	-30	30	-356.18688585	73.1270955676	356.576163315	-116.207345659	;
	10	14	0.00105221	0.00958364	0.031105236	904	904	904	0	0	1	-30	30	-25.2895566939	-4.94587481076	25.2961468292	1.7726728386	;
	10	24	0.000243464	0.000280289	1.367512381	1416	1416	1416	0	0	1	-30	30	-111.312035502	-30.7673117762	111.344872831	-111.281808302	;
	11	21	0.00015784	0.00169041	0.142387631	2172	2172	2172	0	0	1	-30	30	-245.688298945	-59.2004021469	245.784404523	45.4674333543	;
	11	25	0.00110679	0.010080759	0.032718716	904	904	904	0	0	1	-30	30	-51.5968273614	-10.8606559597	51.6261809229	7.7350828175	;
	12	14	0.000665432	0.00606083	0.019671394	904	904	904	0	0	1	-30	30	5.19340527764	-5.20291651164	-5.19312077733	3.16004345326	;
	12	18	0.000258897	0.000298056	0.363549377	708	708	708	0	0	1	-30	30	-176.834338059	-94.7366487798	176.926536062	57.0234079339	;
	13	16	0.000661549	0.006025463	0.019556605	904	904	904	0	0	1	-30	30	-36.4858328774	-12.2018003597	36.4950957478	10.2503057235	;
	13	17	0.000189196	0.000217813	0.265674267	708	708	708	0	0	1	-30	30	-295.900382149	-35.6194266751	296.060515871	8.15506915751	;
	13	22	0.000821755	0.00748463	0.024292563	904	904	904	0	0	1	-30	30	-31.5621783287	-8.42062332364	31.570453602	5.96740697948	;
	14	18	9.94e-05	0.000114489	0.558582953	1416	1416	1416	0	0	1	-30	30	-536.509791942	30.6618398464	536.788301165	-88.4616536214	;
	14	19	2.7e-05	6.2e-05	1.344867636	1906	1906	1906	0	0	1	-30	30	67.4133407362	-153.86948655	-67.4103320341	14.0008296188	;
	14	23	0.000322118	0.000370841	0.45232683	708	708	708	0	0	1	-30	30	195.767314003	-56.6494638905	-195.645215992	9.76937826231	;
	15	16	0.000110729	0.000127478	0.155489196	708	708	708	0	0	1	-30	30	-411.088351423	89.8923631617	411.278270769	-105.869428034	;
	16	17	1.61e-05	3.7e-05	7.216516162	5718	5718	5718	0	0	1	-30	30	3766.29370091	-1173.2821215	-3764.00358758	426.860122368	;
	16	20	0.000640865	0.005837068	0.018945138	904	904	904	0	0	1	-30	30	-139.692378959	41.124808162	139.823312468	-41.903303948	;
	16	22	3.29e-05	7.57e-05	1.640782241	1906	1906	1906	0	0	1	-30	30	-141.452920423	134.498308515	141.474518109	-305.386587388	;
	16	28	0.000193401	0.002071259	0.697869898	4344	4344	4344	0	0	1	-30	30	-3712.24988217	801.885636032	3739.13383365	-586.179938717	;
	17	18	8.5e-06	1.95e-05	1.693948976	3812	3812	3812	0	0	1	-30	30	2929.13264928	-488.896234721	-2928.41918828	314.169753217	;
	18	19	3.3e-05	3.8e-05	0.742	2832	2832	2832	0	0	1	-30	30	1669.80574151	-352.494329357	-1668.89059776	276.340460993	;
	18	30	0.000754369	0.006870878	0.022300533	904	904	904	0	0	1	-30	30	-17.6418041835	13.508753478	17.6456190981	-15.7934683475	;
	19	23	4.24e-05	4.88e-05	0.952412124	2832	2832	2832	0	0	1	-30	30	1446.56640311	-196.632578376	-1445.70454826	98.6153703581	;
	20	22	0.000644357	0.005868869	0.019048354	904	904	904	0	0	1	-30	30	136.251357375	-39.361324452	-136.127079621	38.5116963703	;
	21	25	0.000588113	0.0053566	0.017385701	904	904	904	0	0	1	-30	30	-19.4565212443	-3.16369771609	19.4586949772	1.37838775848	;
	21	34	9.49e-05	0.001016882	0.085654572	2172	2172	2172	0	0	1	-30	30	-511.48650191	-114.582063749	511.736770052	108.358641945	;
	22	29	0.000157753	0.000181614	0.886083495	1416	1416	1416	0	0	1	-30	30	614.586704435	72.7510482764	-613.993280689	-164.265159448	;
	22	36	0.000114952	0.001231098	0.103698609	2172	2172	2172	0	0	1	-30	30	39.2128466612	81.1603179431	-39.2028813278	-91.8442392004	;
	22	38	0.000222736	0.002385427	0.200930653	2172	2172	2172	0	0	1	-30	30	-503.356713486	163.536686175	503.963208844	-177.912725885	;
	22	46	0.000425686	0.004558955	0.384012537	2172	2172	2172	0	0	1	-30	30	-275.142961882	59.6447068553	275.478247556	-95.9647403756	;
	23	24	5.52e-05	0.000503	0.0147	2712	2712	2712	0	0	1	-30	30	223.351549886	-40.5301783554	-223.324206893	39.2518618879	;
	23	32	2.02e-05	4.64e-05	1.00675716	1906	1906	1906	0	0	1	-30	30	764.562403155	-50.661991617	-764.448756951	-53.6655208991	;
	23	33	0.000169968	0.000195677	0.238673524	708	708	708	0	0	1	-30	30	264.945299253	-53.6636372551	-264.827683846	29.0091788018	;
	24	26	0.000118	0.000136	0.664	1416	1416	1416	0	0	1	-30	30	-485.227949007	14.6230493738	485.498041901	-83.3466294594	;
	25	26	0.00041452	0.003775492	0.012253963	904	904	904	0	0	1	-30	30	-71.7437424429	-14.9086546168	71.7651003952	13.8295719089	;
	25	34	0.000619848	0.00564564	0.018323828	904	904	904	0	0	1	-30	30	-73.8265173886	-17.1857917352	73.8606216437	15.5909383443	;
	26	32	0.000607908	0.005536893	0.01797087	904	904	904	0	0	1	-30	30	0.136856501812	12.3952955917	-0.135817948408	-14.2538172128	;
	26	34	4.5e-05	0.000103577	2.245327702	1906	1906	1906	0	0	1	-30	30	-1342.55633263	-56.725648312	1343.33766133	-175.154177666	;
	27	34	9.33e-05	0.000999417	0.336734	4344	4344	4344	0	0	1	-30	30	415.688276612	18.3974140654	-415.532510429	-51.8169826744	;
	28	38	0.001685665	0.015353221	0.049831335	904	904	904	0	0	1	-30	30	422.201209633	-61.8988217371	-419.219327717	83.9171212303	;
	28	41	0.002015591	0.018358223	0.059584548	904	904	904	0	0	1	-30	30	-101.595164899	36.6984834349	101.828630587	-40.6647159799	;
	28	50	9.99e-05	0.00321	1.63	7290	7290	7290	0	0	1	-30	30	1697.47501774	-268.005774454	-1694.64072475	190.656265473	;
	28	80	0.000122152	0.003924627	7.991861101	14580	14580	14580	0	0	1	-30	30	-7906.99997253	1424.42642959	7985.3234981	281.141966186	;
	29	30	8.04e-06	9.26e-06	0.04515506	1416	1416	1416	0	0	1	-30	30	590.522860396	26.3871387477	-590.495820338	-31.0488206931	;
	29	36	3.7e-05	8.52e-05	1.846241882	1906	1906	1906	0	0	1	-30	30	-569.78948934	64.4490713577	569.914227308	-256.05899639	;
	30	31	0.00033011	0.003006676	0.009758648	904	904	904	0	0	1	-30	30	136.167982435	16.6493796843	-136.108149291	-17.1176163116	;
	31	33	0.000235829	0.000271499	0.331156608	708	708	708	0	0	1	-30	30	-220.191851598	-5.83457579269	220.302372368	-28.4054036738	;
	31	36	0.00107165	0.0097607	0.031679912	904	904	904	0	0	1	-30	30	-48.106383126	-7.32981320772	48.130625706	4.26101882783	;
	32	33	6.05e-05	6.97e-05	0.1912274	1062	1062	1062	0	0	1	-30	30	343.795240351	-0.940303345669	-343.726350153	-18.8392288568	;
	32	37	0.000239942	0.002569698	0.216452349	2172	2172	2172	0	0	1	-30	30	-71.5561897154	-5.69464559396	71.5680886478	-16.6617247208	;
	32	44	0.000338016	0.003620039	0.304925228	2172	2172	2172	0	0	1	-30	30	-142.721360157	29.186287381	142.794242366	-60.0440996527	;
	34	37	6.47e-05	0.000692975	0.058371101	2172	2172	2172	0	0	1	-30	30	-56.4163232491	182.864139538	56.4397748861	-188.68368862	;
	35	37	0.000950447	0.008656772	0.028096937	904	904	904	0	0	1	-30	30	-37.1675268396	-18.9078754143	37.1830095686	16.1355169066	;
	35	40	0.001104834	0.01006295	0.032660912	904	904	904	0	0	1	-30	30	-200.71898314	4.13960678661	201.1493973	-3.60583345095	;
	36	38	0.000952048	0.00867136	0.028144286	904	904	904	0	0	1	-30	30	-143.03652538	36.4002216175	143.23704375	-37.4942031582	;
	36	43	0.001604892	0.014617531	0.047443535	904	904	904	0	0	1	-30	30	74.3359417046	18.2567136738	-74.2439952123	-22.3311198301	;
	36	44	0.000327256	0.003504805	0.295218756	2172	2172	2172	0	0	1	-30	30	-39.7528455658	31.5639298478	39.7647480346	-62.0788670717	;
	36	46	0.000315296	0.00337672	0.284429868	2172	2172	2172	0	0	1	-30	30	-385.331307989	61.2500055259	385.799219979	-85.768341622	;
	37	40	0.000119	0.00127	0.429	4344	4344	4344	0	0	1	-30	30	-1344.54078533	118.105631287	1346.63433674	-140.324312732	;
	38	42	0.001675214	0.015258027	0.049522368	904	904	904	0	0	1	-30	30	-167.128340626	86.1563398696	167.707400977	-85.9604924283	;
	38	45	0.001624604	0.014797065	0.048026242	904	904	904	0	0	1	-30	30	31.6032823364	-6.81121331882	-31.5873236551	1.98142100394	;
	38	46	0.001525585	0.013895192	0.045099066	904	904	904	0	0	1	-30	30	-3.85932866548	-6.04222793862	3.85975039699	1.37218572895	;
	38	84	0.000977268	0.010466224	0.881597169	2172	2172	2172	0	0	1	-30	30	-676.485812222	120.696362575	681.064702297	-162.248547492	;
	39	44	0.000549539	0.00500526	0.064981493	1808	1808	1808	0	0	1	-30	30	-366.283762456	-26.6628689337	367.002643893	26.4972892315	;
	40	44	0.000186834	0.002000932	0.16854368	2172	2172	2172	0	0	1	-30	30	687.11583233	-12.1414217809	-686.266575023	3.74913209223	;
	40	47	0.000177428	0.001900194	0.160058219	2172	2172	2172	0	0	1	-30	30	1282.73476116	74.4143975446	-1279.91240764	-60.7561225322	;
	41	42	0.001299581	0.011836722	0.038417974	904	904	904	0	0	1	-30	30	482.048379254	-31.2428404726	-479.069429374	54.4710238081	;
	41	52	0.003101751	0.028251087	0.091693421	904	904	904	0	0	1	-30	30	83.806675328	-23.7295726152	-83.5814823427	16.4228835779	;
	41	77	0.002217352	0.020195883	0.065548969	904	904	904	0	0	1	-30	30	-143.281601461	14.2055313798	143.735704	-16.7393039506	;
	42	46	0.00172419	0.015704108	0.050970195	904	904	904	0	0	1	-30	30	159.649676999	-86.9982370986	-159.09574051	86.8138597469	;
	42	84	0.004178797	0.038060939	0.123532864	904	904	904	0	0	1	-30	30	-117.07048842	3.63530297189	117.638719098	-11.0260986475	;
	43	44	0.000449352	0.004092749	0.013283673	904	904	904	0	0	1	-30	30	-297.950010652	-30.8833970937	298.340843798	33.0698891353	;
	44	48	0.001280818	0.011665829	0.037863315	904	904	904	0	0	1	-30	30	-85.1547208665	2.13118111448	85.2445384246	-5.23993946517	;
	44	57	0.000681396	0.007297531	0.614689901	2172	2172	2172	0	0	1	-30	30	-545.337695689	15.128467652	547.307378434	-57.808375336	;
	45	46	0.000111099	0.001189836	0.100222927	2172	2172	2172	0	0	1	-30	30	-438.970264153	0.192574539506	439.176926305	-8.36735816296	;
	45	50	0.00040114	0.004296079	0.361869864	2172	2172	2172	0	0	1	-30	30	-373.613763336	-14.4881585801	374.154285316	-17.2670554016	;
	46	48	0.001260894	0.011484355	0.037274311	904	904	904	0	0	1	-30	30	14.2855799573	-7.11833814846	-14.2827713976	3.27726688268	;
	46	50	0.000334595	0.003583402	0.301839233	2172	2172	2172	0	0	1	-30	30	-302.30332307	-13.8563022557	302.598219621	-14.314486314	;
	47	49	0.001906713	0.017366547	0.056365905	904	904	904	0	0	1	-30	30	-101.835812284	0.163855469353	102.027670256	-4.23976951935	;
	47	60	0.000752607	0.008060181	0.67892992	2172	2172	2172	0	0	1	-30	30	-997.845743661	-6.65476015289	1005.11591217	13.9095964677	;
	48	49	0.001480551	0.013485018	0.043767781	904	904	904	0	0	1	-30	30	21.0079425711	6.82918181281	-21.0004647158	-11.2964376828	;
	48	51	0.001270961	0.011576049	0.037571917	904	904	904	0	0	1	-30	30	2.7918483074	4.20785720446	-2.79128851798	-8.099038842	;
	49	51	0.000899122	0.008189302	0.0598043	1356	1356	1356	0	0	1	-30	30	-30.6174630503	-9.28613665558	30.6259422022	3.1707157467	;
	49	53	0.002230934	0.020319589	0.065950477	904	904	904	0	0	1	-30	30	-473.830525307	19.8052538769	478.682960319	17.4987812794	;
	50	51	0.000183433	0.001964511	0.165475847	2172	2172	2172	0	0	1	-30	30	651.923142532	2.56092716513	-651.172546759	-11.6921619502	;
	50	54	0.000298513	0.003196975	0.269289514	2172	2172	2172	0	0	1	-30	30	-329.542249183	38.4400409635	329.862175499	-62.9741986504	;
	50	62	4.12e-05	0.001322961	2.693994224	14580	14580	14580	0	0	1	-30	30	-1067.24101415	-224.570356277	1067.6955341	-41.1711779248	;
	51	55	0.001436718	0.01308578	0.042471992	904	904	904	0	0	1	-30	30	-269.642461816	16.8717622899	270.655537742	-12.0542586473	;
	51	57	0.00189377	0.017248658	0.055983277	904	904	904	0	0	1	-30	30	-174.44096876	12.1651908755	175.001214033	-12.8702433199	;
	52	54	0.001933006	0.017606027	0.057143176	904	904	904	0	0	1	-30	30	215.223642895	-62.0855808445	-214.282826724	64.7651818851	;
	52	56	0.001462649	0.013321963	0.04323856	904	904	904	0	0	1	-30	30	225.124746202	-35.8073078366	-224.38444482	38.1169454709	;
	52	84	0.001585688	0.014442614	0.046875812	904	904	904	0	0	1	-30	30	-78.4122227785	21.46221805	78.5162877812	-25.3027289885	;
	53	55	0.000288514	0.003089893	1.041078801	4344	4344	4344	0	0	1	-30	30	1914.1039126	67.3475053708	-1904.04825031	-68.7463592157	;
	53	58	0.000270064	0.002892303	0.243626177	2172	2172	2172	0	0	1	-30	30	-151.32095876	8.97494608226	151.380766314	-34.0438553943	;
	53	63	2.79e-05	0.000896312	1.825192122	14580	14580	14580	0	0	1	-30	30	1999.94809011	-24.1723128163	-1998.88944547	-134.273948355	;
	54	55	0.002132132	0.019419691	0.063029714	904	904	904	0	0	1	-30	30	-62.1813182647	-2.72499865325	62.2607710288	-3.09986425895	;
	54	61	0.001817125	0.016550571	0.053717525	904	904	904	0	0	1	-30	30	-3.14612913455	-6.34952134506	3.14652471084	0.775554086935	;
	54	62	0.000345552	0.003700749	0.311723639	2172	2172	2172	0	0	1	-30	30	-95.9106851411	-68.9642658545	95.95059868	36.9736903971	;
	55	57	0.000154208	0.001651521	0.139111914	2172	2172	2172	0	0	1	-30	30	315.030598849	14.9493626484	-314.882748222	-27.8253695791	;
	55	64	0.003142511	0.028622331	0.092898352	904	904	904	0	0	1	-30	30	11.0409873513	-4.18805358375	-11.0372922256	-5.43715004924	;
	56	61	0.001408725	0.01283082	0.041644479	904	904	904	0	0	1	-30	30	56.2733225442	-54.9280581344	-56.191652054	51.3703262741	;
	57	60	0.001430752	0.01303144	0.042295623	904	904	904	0	0	1	-30	30	-231.508491872	-10.9043791717	232.247885519	13.2254627983	;
	57	97	0.000552148	0.005913329	0.498094995	2172	2172	2172	0	0	1	-30	30	-754.545438016	-49.6769537141	757.575294572	30.0691551083	;
	58	59	6.17e-05	0.00066	0.501	6516	6516	6516	0	0	1	-30	30	-2770.03962095	9.31909600345	2774.52757918	-14.2525060051	;
	58	63	0.00017	0.00182	0.613	4344	4344	4344	0	0	1	-30	30	1221.91542398	-87.3750747392	-1219.50479287	48.5587214552	;
	60	63	0.000254942	0.002730347	0.229984176	2172	2172	2172	0	0	1	-30	30	-592.996802297	-44.2927513931	593.85447127	29.3097031844	;
	60	100	0.000568608	0.006089613	0.512943851	2172	2172	2172	0	0	1	-30	30	-832.961372192	-1.70171416055	836.727989822	-11.9615021928	;
	61	62	0.000190755	0.001737417	0.022556263	1808	1808	1808	0	0	1	-30	30	-175.859620331	-76.2915220729	175.926762652	74.555839033	;
	62	63	6.31e-05	0.00202596	4.125535352	14580	14580	14580	0	0	1	-30	30	-2462.66919959	-353.965762389	2466.35259924	39.9462877762	;
	62	64	0.00024797	0.002655684	0.223695124	2172	2172	2172	0	0	1	-30	30	-203.489572397	65.5038989597	203.602254366	-87.5776300341	;
	63	97	0.001705746	0.015536123	0.050424972	904	904	904	0	0	1	-30	30	10.9562679658	1.73624982547	-10.9540118014	-7.02304714109	;
	64	96	0.001229987	0.011202852	0.036360649	904	904	904	0	0	1	-30	30	-117.044976528	0.213640971621	117.207175592	-2.51958515541	;
	64	98	0.00145865	0.013285543	0.043120356	904	904	904	0	0	1	-30	30	59.9642313959	11.4329508742	-59.9111365952	-15.4189477096	;
	64	99	0.00122871	0.011191219	0.036322892	904	904	904	0	0	1	-30	30	107.77252941	7.79862024528	-107.634089442	-10.3038709327	;
	64	102	0.00020466	0.002191839	0.73849704	4344	4344	4344	0	0	1	-30	30	-835.634123867	40.1835401423	837.021481923	-102.081074971	;
	65	68	0.001222283	0.011132689	0.036132921	904	904	904	0	0	1	-30	30	-287.692417157	5.30825764688	288.684226014	0.0257401246813	;
	65	69	0.003164497	0.028822584	0.093548306	904	904	904	0	0	1	-30	30	205.567839769	-18.0662435863	-204.252135965	20.510647386	;
	66	67	0.001903714	0.01733923	0.056277244	904	904	904	0	0	1	-30	30	-282.85644464	52.7752754973	284.398903584	-44.4816775749	;
	66	70	0.001986687	0.018094956	0.058730073	904	904	904	0	0	1	-30	30	0.930764223491	-0.000107047509346	-0.930571740307	-6.01877406484	;
	67	69	0.001285688	0.011710181	0.038007266	904	904	904	0	0	1	-30	30	-310.865202994	41.5617091892	312.10759245	-34.1196178384	;
	68	69	0.00309092	0.02815243	0.091373212	904	904	904	0	0	1	-30	30	325.608644507	-10.971087719	-322.416866126	30.6952669294	;
	68	71	0.000542799	0.0058132	0.489660838	2172	2172	2172	0	0	1	-30	30	-617.161002977	6.33519523551	619.179165939	-35.1193374836	;
	69	72	0.003845431	0.035024597	0.113677932	904	904	904	0	0	1	-30	30	198.317019431	-21.8833846532	-196.822727902	23.907479491	;
	70	72	0.001924592	0.017529395	0.056894456	904	904	904	0	0	1	-30	30	-93.903590175	22.3307078655	94.0811999726	-26.5281927086	;
	71	73	0.000429713	0.004602092	0.387646086	2172	2172	2172	0	0	1	-30	30	-871.066633661	127.940739369	874.319033975	-133.002772466	;
	71	78	0.005029715	0.045811184	0.148687523	904	904	904	0	0	1	-30	30	331.172082323	-22.575468074	-325.812830183	56.0304044321	;
	72	74	0.001850173	0.016851572	0.054694473	904	904	904	0	0	1	-30	30	-1.43504760907	-7.79694471312	1.43554017217	2.21988767796	;
	73	75	0.000154736	0.001657168	0.139587554	2172	2172	2172	0	0	1	-30	30	-2139.54544773	92.5565814618	2146.45827121	-32.8884842559	;
	73	76	0.003400257	0.030969904	0.100517777	904	904	904	0	0	1	-30	30	314.205813829	16.1069701307	-310.921807169	3.60858421012	;
	73	79	0.005323371	0.048485836	0.157368535	904	904	904	0	0	1	-30	30	313.913904533	12.4931481221	-308.783544897	18.3143282736	;
	73	80	0.003287737	0.029945065	0.097191498	904	904	904	0	0	1	-30	30	-24.7274696758	40.1398352409	24.8122551536	-49.2257315257	;
	73	81	0.001180594	0.012643784	1.065018618	2172	2172	2172	0	0	1	-30	30	1506.75105117	29.1672409099	-1480.56891669	142.989222029	;
	74	77	0.001050785	0.009570661	0.03106311	904	904	904	0	0	1	-30	30	248.245155177	-6.1652264648	-247.610932449	8.77498664332	;
	74	78	0.003080612	0.028058549	0.091068507	904	904	904	0	0	1	-30	30	-166.619401948	-5.67571085275	167.456783183	3.9420178656	;
	75	82	0.000690812	0.007398375	0.623184303	2172	2172	2172	0	0	1	-30	30	-661.757204147	160.636160431	664.939114835	-190.311828242	;
	76	79	0.00216439	0.019713499	0.063983315	904	904	904	0	0	1	-30	30	275.395093404	-12.4970457025	-273.754516711	21.0471512014	;
	77	81	0.002745828	0.0250093	0.081171682	904	904	904	0	0	1	-30	30	-271.910964339	58.8414416768	274.013026539	-47.907975148	;
	78	81	0.002422622	0.022065501	0.071617111	904	904	904	0	0	1	-30	30	6.34243334093	60.6471850869	-6.24450254732	-67.0610202824	;
	79	80	0.003522928	0.032087205	0.104144155	904	904	904	0	0	1	-30	30	-482.871165319	78.7513075661	491.36382598	-11.8040666566	;
	79	81	0.001905365	0.017354266	0.056326045	904	904	904	0	0	1	-30	30	211.952145574	-49.0808165999	-211.052182471	51.6386722628	;
	79	83	0.001772751	0.016146406	0.052405742	904	904	904	0	0	1	-30	30	267.838566114	12.958232419	-266.557985249	-6.48342935528	;
	80	82	3.61e-05	0.00115912	2.360357594	14580	14580	14580	0	0	1	-30	30	-6522.45179905	-224.403090123	6537.78735848	478.845019894	;
	81	84	0.00122041	0.011115623	0.144310127	1808	1808	1808	0	0	1	-30	30	988.702547741	-121.131710613	-976.684880006	215.976847894	;
	81	86	0.000662535	0.007095536	0.59767536	2172	2172	2172	0	0	1	-30	30	-778.628232847	136.451656079	782.804128596	-151.545116266	;
	82	85	0.004627741	0.042149964	0.136804449	904	904	904	0	0	1	-30	30	464.843909338	22.317669118	-454.94913677	54.1248451363	;
	82	86	0.000927929	0.009937818	0.837088105	2172	2172	2172	0	0	1	-30	30	2169.84683905	83.1135859025	-2126.64218577	295.452042009	;
	82	94	0.005001876	0.045557628	0.147864567	904	904	904	0	0	1	-30	30	223.733191154	-1.57654748347	-221.263722149	9.19512063068	;
	83	89	0.003668123	0.033409661	0.108436396	904	904	904	0	0	1	-30	30	-1.25056158514	-20.2980590827	1.25896859056	9.65155023171	;
	85	86	0.000987046	0.00899012	0.029178874	904	904	904	0	0	1	-30	30	202.713940533	-79.34836563	-202.241501394	80.7610626667	;
	86	87	0.000301405	0.003227955	0.271898989	2172	2172	2172	0	0	1	-30	30	21.4247103124	-20.9002242514	-21.4231568104	-6.1623156534	;
	86	89	0.003643968	0.033189659	0.107722346	904	904	904	0	0	1	-30	30	185.180485831	-17.1543070924	-183.920487637	17.9137790205	;
	86	90	0.002477336	0.022563841	0.073234554	904	904	904	0	0	1	-30	30	89.8813926403	-10.7832366323	-89.6791363922	5.33601748962	;
	86	92	0.000752885	0.008063158	0.67918067	2172	2172	2172	0	0	1	-30	30	-69.8067386105	-44.9472264248	69.8445200008	-22.375643706	;
	87	90	0.002118269	0.019293421	0.062619884	904	904	904	0	0	1	-30	30	101.571578194	-10.251816214	-101.351103565	6.025976091	;
	87	95	0.000515412	0.005519901	0.464955523	2172	2172	2172	0	0	1	-30	30	422.327827723	-44.6568633202	-421.402544878	8.28527816798	;
	88	92	0.001978682	0.018022046	0.058493431	904	904	904	0	0	1	-30	30	901.256695135	-1.53389955831	-885.317324089	140.841674237	;
	88	94	0.002833759	0.025810183	0.083771075	904	904	904	0	0	1	-30	30	211.29241363	-0.0550089717308	-210.037260203	3.08685196372	;
	89	93	0.001483845	0.013515018	0.043865152	904	904	904	0	0	1	-30	30	429.092974555	-74.0897814617	-426.267053348	95.4462149725	;
	90	92	0.002453205	0.022344057	0.072521209	904	904	904	0	0	1	-30	30	-115.83065805	2.37857234114	116.162354863	-6.58627023331	;
	91	147	0.00275034	0.025050396	0.081305066	904	904	904	0	0	1	-30	30	-30.2399496497	0.421259272628	30.2649438835	-8.56247771835	;
	92	95	0.000460572	0.004932573	0.415483409	2172	2172	2172	0	0	1	-30	30	601.597959463	-27.7533081626	-599.92854981	4.22283521982	;
	93	102	0.004195747	0.038215319	0.124033929	904	904	904	0	0	1	-30	30	175.226271539	-65.1210428045	-173.798417262	65.4518966546	;
	93	149	0.002966654	0.027020609	0.087699707	904	904	904	0	0	1	-30	30	0.698387083631	36.1544244005	-0.649775809866	-44.4223955256	;
	94	150	0.00258422	0.023537359	0.076394262	904	904	904	0	0	1	-30	30	588.003354805	-6.08629190525	-579.043154194	80.1165538198	;
	95	146	0.001216475	0.011079788	0.035961223	904	904	904	0	0	1	-30	30	337.791520628	-0.56026983878	-336.396032757	9.7062645062	;
	95	150	0.000858914	0.009198692	0.774829649	2172	2172	2172	0	0	1	-30	30	24.3557709679	-0.702633624101	-24.3382891314	-75.8951745419	;
	95	152	0.003724941	0.033927169	0.110116054	904	904	904	0	0	1	-30	30	249.9586349	-14.4781387586	-247.615818738	24.8923740174	;
	96	97	0.002346462	0.021371826	0.069365678	904	904	904	0	0	1	-30	30	-137.7783342	-9.63379354022	138.206715922	6.27493555965	;
...